data_image0
_chemical_formula_structural       Ca2N12Ca2N12Ca2N12
_chemical_formula_sum              "Ca6 N36"
_cell_length_a       6.282718557636219
_cell_length_b       7.9035405904579
_cell_length_c       33.04476223217582
_cell_angle_alpha    90.0
_cell_angle_beta     90.0
_cell_angle_gamma    128.15735025394184

_space_group_name_H-M_alt    "P 1"
_space_group_IT_number       1

loop_
  _space_group_symop_operation_xyz
  'x, y, z'

loop_
  _atom_site_type_symbol
  _atom_site_label
  _atom_site_symmetry_multiplicity
  _atom_site_fract_x
  _atom_site_fract_y
  _atom_site_fract_z
  _atom_site_occupancy
  Ca  Ca1       1.0  0.5900825281697532  0.29424160699150176  0.3026198200410399  1.0000
  Ca  Ca2       1.0  0.1305776971882724  0.05969124894051214  0.4102817363822909  1.0000
  N   N1        1.0  0.6337872638575899  0.7573172141577289  0.38780548539995363  1.0000
  N   N2        1.0  0.12499492173717353  0.11533821558306177  0.33268963250002287  1.0000
  N   N3        1.0  0.930677762432616  0.08914317578403255  0.32050583201006483  1.0000
  N   N4        1.0  0.6098174065859033  0.676306466164978  0.3565084189661823  1.0000
  N   N5        1.0  0.7899824629254095  0.26478968014798143  0.3923957244132659  1.0000
  N   N6        1.0  0.11084281877212267  0.677626389767036  0.3563931374571484  1.0000
  N   N7        1.0  0.12989413778277495  0.7523081036922871  0.38824231860128544  1.0000
  N   N8        1.0  0.9892181676976037  0.2973137575538395  0.40402741162835054  1.0000
  N   N9        1.0  0.5956653036208523  0.2385946403489523  0.3802119239233079  1.0000
  N   N10       1.0  0.08687296150043557  0.596615641774285  0.32509607102337723  1.0000
  N   N11       1.0  0.5907660875752508  0.6016247522397269  0.3246592378220453  1.0000
  N   N12       1.0  0.7314420576604221  0.056619098378174464  0.3088741447949802  1.0000
  Ca  Ca3       1.0  0.3107427535277789  0.648174462923516  0.4461690418293745  1.0000
  Ca  Ca4       1.0  0.8512379225462979  0.4136241048725262  0.5538309581706256  1.0000
  N   N13       1.0  0.35444748921561553  0.11125007008974318  0.5313547071882883  1.0000
  N   N14       1.0  0.8456551470951992  0.4692710715150761  0.4762388542883575  1.0000
  N   N15       1.0  0.6513379877906417  0.4430760317160468  0.46405505379839945  1.0000
  N   N16       1.0  0.3304776319439291  0.030239322096992316  0.500057640754517  1.0000
  N   N17       1.0  0.5106426882834352  0.6187225360799957  0.5359449462016005  1.0000
  N   N18       1.0  0.8315030441301484  0.03155924569905033  0.4999423592454831  1.0000
  N   N19       1.0  0.8505543631408008  0.10624095962430147  0.5317915403896201  1.0000
  N   N20       1.0  0.7098783930556292  0.6512466134858538  0.5475766334166852  1.0000
  N   N21       1.0  0.3163255289788778  0.5925274962809665  0.5237611457116425  1.0000
  N   N22       1.0  0.8075331868584612  0.9505484977062995  0.4686452928117119  1.0000
  N   N23       1.0  0.3114263129332769  0.9555576081717413  0.46820845961037993  1.0000
  N   N24       1.0  0.45210228301844735  0.4105519543101887  0.4524233665833148  1.0000
  Ca  Ca5       1.0  0.031402978885804796  0.0021073188555302824  0.5897182636177092  1.0000
  Ca  Ca6       1.0  0.571898147904323  0.7675569608045405  0.6973801799589601  1.0000
  N   N25       1.0  0.07510771457364117  0.4651829260217572  0.6749039289766229  1.0000
  N   N26       1.0  0.5663153724532246  0.8232039274470904  0.6197880760766922  1.0000
  N   N27       1.0  0.37199821314866727  0.7970088876480611  0.6076042755867341  1.0000
  N   N28       1.0  0.051137857301954484  0.38417217802900655  0.6436068625428515  1.0000
  N   N29       1.0  0.23130291364146066  0.9726553920120098  0.6794941679899352  1.0000
  N   N30       1.0  0.5521632694881742  0.38549210163106484  0.6434915810338179  1.0000
  N   N31       1.0  0.5712145884988264  0.46017381555631576  0.6753407621779548  1.0000
  N   N32       1.0  0.4305386184136548  0.0051794694178679546  0.6911258552050199  1.0000
  N   N33       1.0  0.036985754336903695  0.946460352212981  0.6673103674999771  1.0000
  N   N34       1.0  0.5281934122164872  0.3044813536383137  0.6121945146000465  1.0000
  N   N35       1.0  0.03208653829130227  0.30949046410375547  0.6117576813987146  1.0000
  N   N36       1.0  0.17276250837647336  0.7644848102422029  0.5959725883716495  1.0000
